src/test/resources/testCase3.xiidm
<?xml version="1.0" encoding="UTF-8"?>
<iidm:network xmlns:iidm="http://www.itesla_project.eu/schema/iidm/1_0" id="3_20140116_0830_2D4_UX1_pst" caseDate="2014-01-16T08:30:00.000+01:00" forecastDistance="0" sourceFormat="UCTE">
    <iidm:substation id="3_BBE1AA" country="BE">
        <iidm:voltageLevel id="3_BBE1AA1" nominalV="380.0" topologyKind="BUS_BREAKER">
            <iidm:busBreakerTopology>
                <iidm:bus id="3_BBE1AA1 " v="380.0" angle="-2.353799343109131"/>
                <iidm:bus id="3_BBE3AA1 " v="380.0" angle="0.0"/>
            </iidm:busBreakerTopology>
            <iidm:generator id="3_BBE1AA1 _generator" energySource="OTHER" minP="-0.0" maxP="9000.0" voltageRegulatorOn="true" targetP="1500.0" targetV="400.0" targetQ="-0.0" bus="3_BBE1AA1 " connectablebus="3_BBE1AA1 " p="-1500.0">
                <iidm:minMaxReactiveLimits minQ="-9000.0" maxQ="9000.0"/>
            </iidm:generator>
            <iidm:generator id="3_BBE3AA1 _generator" energySource="OTHER" minP="-0.0" maxP="9000.0" voltageRegulatorOn="true" targetP="2500.0" targetV="400.0" targetQ="-0.0" bus="3_BBE3AA1 " connectablebus="3_BBE3AA1 " p="-2500.0">
                <iidm:minMaxReactiveLimits minQ="-9000.0" maxQ="9000.0"/>
            </iidm:generator>
            <iidm:load id="3_BBE1AA1 _load" loadType="UNDEFINED" p0="3000.0" q0="0.0" bus="3_BBE1AA1 " connectablebus="3_BBE1AA1 " p="3000.0"/>
            <iidm:load id="3_BBE3AA1 _load" loadType="UNDEFINED" p0="1500.0" q0="0.0" bus="3_BBE3AA1 " connectablebus="3_BBE3AA1 " p="1500.0"/>
        </iidm:voltageLevel>
        <iidm:twoWindingsTransformer id="3_BBE1AA1  BBE3AA1  2" r="0.20800000429153442" x="25.5" g="1.0625000186337274E-6" b="-2.1624998680636054E-6" ratedU1="400.0" ratedU2="400.0" bus1="3_BBE3AA1 " connectablebus1="3_BBE3AA1 " voltageLevelId1="3_BBE1AA1" bus2="3_BBE1AA1 " connectablebus2="3_BBE1AA1 " voltageLevelId2="3_BBE1AA1" p1="-227.49346923828125" p2="227.49346923828125">
            <iidm:phaseTapChanger lowTapPosition="-33" tapPosition="5" regulationMode="FIXED_TAP">
                <iidm:step r="0.0" x="0.0" g="0.0" b="0.0" rho="1.0" alpha="30.036436080932617"/>
                <iidm:step r="0.0" x="0.0" g="0.0" b="0.0" rho="1.0" alpha="29.165605545043945"/>
                <iidm:step r="0.0" x="0.0" g="0.0" b="0.0" rho="1.0" alpha="28.29132080078125"/>
                <iidm:step r="0.0" x="0.0" g="0.0" b="0.0" rho="1.0" alpha="27.413660049438477"/>
                <iidm:step r="0.0" x="0.0" g="0.0" b="0.0" rho="1.0" alpha="26.53270721435547"/>
                <iidm:step r="0.0" x="0.0" g="0.0" b="0.0" rho="1.0" alpha="25.648548126220703"/>
                <iidm:step r="0.0" x="0.0" g="0.0" b="0.0" rho="1.0" alpha="24.761274337768555"/>
                <iidm:step r="0.0" x="0.0" g="0.0" b="0.0" rho="1.0" alpha="23.870973587036133"/>
                <iidm:step r="0.0" x="0.0" g="0.0" b="0.0" rho="1.0" alpha="22.977739334106445"/>
                <iidm:step r="0.0" x="0.0" g="0.0" b="0.0" rho="1.0" alpha="22.0816650390625"/>
                <iidm:step r="0.0" x="0.0" g="0.0" b="0.0" rho="1.0" alpha="21.182849884033203"/>
                <iidm:step r="0.0" x="0.0" g="0.0" b="0.0" rho="1.0" alpha="20.281387329101562"/>
                <iidm:step r="0.0" x="0.0" g="0.0" b="0.0" rho="1.0" alpha="19.377382278442383"/>
                <iidm:step r="0.0" x="0.0" g="0.0" b="0.0" rho="1.0" alpha="18.470935821533203"/>
                <iidm:step r="0.0" x="0.0" g="0.0" b="0.0" rho="1.0" alpha="17.56215476989746"/>
                <iidm:step r="0.0" x="0.0" g="0.0" b="0.0" rho="1.0" alpha="16.651138305664062"/>
                <iidm:step r="0.0" x="0.0" g="0.0" b="0.0" rho="1.0" alpha="15.737995147705078"/>
                <iidm:step r="0.0" x="0.0" g="0.0" b="0.0" rho="1.0" alpha="14.82283878326416"/>
                <iidm:step r="0.0" x="0.0" g="0.0" b="0.0" rho="1.0" alpha="13.905777931213379"/>
                <iidm:step r="0.0" x="0.0" g="0.0" b="0.0" rho="1.0" alpha="12.986922264099121"/>
                <iidm:step r="0.0" x="0.0" g="0.0" b="0.0" rho="1.0" alpha="12.066386222839355"/>
                <iidm:step r="0.0" x="0.0" g="0.0" b="0.0" rho="1.0" alpha="11.144285202026367"/>
                <iidm:step r="0.0" x="0.0" g="0.0" b="0.0" rho="1.0" alpha="10.220732688903809"/>
                <iidm:step r="0.0" x="0.0" g="0.0" b="0.0" rho="1.0" alpha="9.295848846435547"/>
                <iidm:step r="0.0" x="0.0" g="0.0" b="0.0" rho="1.0" alpha="8.369750022888184"/>
                <iidm:step r="0.0" x="0.0" g="0.0" b="0.0" rho="1.0" alpha="7.442552089691162"/>
                <iidm:step r="0.0" x="0.0" g="0.0" b="0.0" rho="1.0" alpha="6.514379024505615"/>
                <iidm:step r="0.0" x="0.0" g="0.0" b="0.0" rho="1.0" alpha="5.585349082946777"/>
                <iidm:step r="0.0" x="0.0" g="0.0" b="0.0" rho="1.0" alpha="4.655583381652832"/>
                <iidm:step r="0.0" x="0.0" g="0.0" b="0.0" rho="1.0" alpha="3.7252047061920166"/>
                <iidm:step r="0.0" x="0.0" g="0.0" b="0.0" rho="1.0" alpha="2.7943341732025146"/>
                <iidm:step r="0.0" x="0.0" g="0.0" b="0.0" rho="1.0" alpha="1.8630945682525635"/>
                <iidm:step r="0.0" x="0.0" g="0.0" b="0.0" rho="1.0" alpha="0.9316088557243347"/>
                <iidm:step r="0.0" x="0.0" g="0.0" b="0.0" rho="1.0" alpha="-0.0"/>
                <iidm:step r="0.0" x="0.0" g="0.0" b="0.0" rho="1.0" alpha="-0.9316088557243347"/>
                <iidm:step r="0.0" x="0.0" g="0.0" b="0.0" rho="1.0" alpha="-1.8630945682525635"/>
                <iidm:step r="0.0" x="0.0" g="0.0" b="0.0" rho="1.0" alpha="-2.7943341732025146"/>
                <iidm:step r="0.0" x="0.0" g="0.0" b="0.0" rho="1.0" alpha="-3.7252047061920166"/>
                <iidm:step r="0.0" x="0.0" g="0.0" b="0.0" rho="1.0" alpha="-4.655583381652832"/>
                <iidm:step r="0.0" x="0.0" g="0.0" b="0.0" rho="1.0" alpha="-5.585349082946777"/>
                <iidm:step r="0.0" x="0.0" g="0.0" b="0.0" rho="1.0" alpha="-6.514379024505615"/>
                <iidm:step r="0.0" x="0.0" g="0.0" b="0.0" rho="1.0" alpha="-7.442552089691162"/>
                <iidm:step r="0.0" x="0.0" g="0.0" b="0.0" rho="1.0" alpha="-8.369750022888184"/>
                <iidm:step r="0.0" x="0.0" g="0.0" b="0.0" rho="1.0" alpha="-9.295848846435547"/>
                <iidm:step r="0.0" x="0.0" g="0.0" b="0.0" rho="1.0" alpha="-10.220732688903809"/>
                <iidm:step r="0.0" x="0.0" g="0.0" b="0.0" rho="1.0" alpha="-11.144285202026367"/>
                <iidm:step r="0.0" x="0.0" g="0.0" b="0.0" rho="1.0" alpha="-12.066386222839355"/>
                <iidm:step r="0.0" x="0.0" g="0.0" b="0.0" rho="1.0" alpha="-12.986922264099121"/>
                <iidm:step r="0.0" x="0.0" g="0.0" b="0.0" rho="1.0" alpha="-13.905777931213379"/>
                <iidm:step r="0.0" x="0.0" g="0.0" b="0.0" rho="1.0" alpha="-14.82283878326416"/>
                <iidm:step r="0.0" x="0.0" g="0.0" b="0.0" rho="1.0" alpha="-15.737995147705078"/>
                <iidm:step r="0.0" x="0.0" g="0.0" b="0.0" rho="1.0" alpha="-16.651138305664062"/>
                <iidm:step r="0.0" x="0.0" g="0.0" b="0.0" rho="1.0" alpha="-17.56215476989746"/>
                <iidm:step r="0.0" x="0.0" g="0.0" b="0.0" rho="1.0" alpha="-18.470935821533203"/>
                <iidm:step r="0.0" x="0.0" g="0.0" b="0.0" rho="1.0" alpha="-19.377382278442383"/>
                <iidm:step r="0.0" x="0.0" g="0.0" b="0.0" rho="1.0" alpha="-20.281387329101562"/>
                <iidm:step r="0.0" x="0.0" g="0.0" b="0.0" rho="1.0" alpha="-21.182849884033203"/>
                <iidm:step r="0.0" x="0.0" g="0.0" b="0.0" rho="1.0" alpha="-22.0816650390625"/>
                <iidm:step r="0.0" x="0.0" g="0.0" b="0.0" rho="1.0" alpha="-22.977739334106445"/>
                <iidm:step r="0.0" x="0.0" g="0.0" b="0.0" rho="1.0" alpha="-23.870973587036133"/>
                <iidm:step r="0.0" x="0.0" g="0.0" b="0.0" rho="1.0" alpha="-24.761274337768555"/>
                <iidm:step r="0.0" x="0.0" g="0.0" b="0.0" rho="1.0" alpha="-25.648548126220703"/>
                <iidm:step r="0.0" x="0.0" g="0.0" b="0.0" rho="1.0" alpha="-26.53270721435547"/>
                <iidm:step r="0.0" x="0.0" g="0.0" b="0.0" rho="1.0" alpha="-27.413660049438477"/>
                <iidm:step r="0.0" x="0.0" g="0.0" b="0.0" rho="1.0" alpha="-28.29132080078125"/>
                <iidm:step r="0.0" x="0.0" g="0.0" b="0.0" rho="1.0" alpha="-29.165605545043945"/>
                <iidm:step r="0.0" x="0.0" g="0.0" b="0.0" rho="1.0" alpha="-30.036436080932617"/>
            </iidm:phaseTapChanger>
            <iidm:currentLimits2 permanentLimit="1227.0"/>
        </iidm:twoWindingsTransformer>
    </iidm:substation>
    <iidm:substation id="3_BBE2AA" country="BE">
        <iidm:voltageLevel id="3_BBE2AA1" nominalV="380.0" topologyKind="BUS_BREAKER">
            <iidm:busBreakerTopology>
                <iidm:bus id="3_BBE2AA1 " v="380.0" angle="2.1468396186828613"/>
            </iidm:busBreakerTopology>
            <iidm:generator id="3_BBE2AA1 _generator" energySource="OTHER" minP="-0.0" maxP="9000.0" voltageRegulatorOn="true" targetP="3000.0" targetV="400.0" targetQ="-0.0" bus="3_BBE2AA1 " connectablebus="3_BBE2AA1 " p="-3000.0">
                <iidm:minMaxReactiveLimits minQ="-9000.0" maxQ="9000.0"/>
            </iidm:generator>
            <iidm:load id="3_BBE2AA1 _load" loadType="UNDEFINED" p0="1000.0" q0="0.0" bus="3_BBE2AA1 " connectablebus="3_BBE2AA1 " p="1000.0"/>
        </iidm:voltageLevel>
    </iidm:substation>
    <iidm:substation id="3_DDE1AA" country="DE">
        <iidm:voltageLevel id="3_DDE1AA1" nominalV="380.0" topologyKind="BUS_BREAKER">
            <iidm:busBreakerTopology>
                <iidm:bus id="3_DDE1AA1 " v="380.0" angle="-13.329349517822266"/>
            </iidm:busBreakerTopology>
            <iidm:generator id="3_DDE1AA1 _generator" energySource="OTHER" minP="-0.0" maxP="9000.0" voltageRegulatorOn="true" targetP="2500.0" targetV="400.0" targetQ="-0.0" bus="3_DDE1AA1 " connectablebus="3_DDE1AA1 " p="-2500.0">
                <iidm:minMaxReactiveLimits minQ="-9000.0" maxQ="9000.0"/>
            </iidm:generator>
            <iidm:load id="3_DDE1AA1 _load" loadType="UNDEFINED" p0="3500.0" q0="0.0" bus="3_DDE1AA1 " connectablebus="3_DDE1AA1 " p="3500.0"/>
        </iidm:voltageLevel>
    </iidm:substation>
    <iidm:substation id="3_DDE2AA" country="DE">
        <iidm:voltageLevel id="3_DDE2AA1" nominalV="380.0" topologyKind="BUS_BREAKER">
            <iidm:busBreakerTopology>
                <iidm:bus id="3_DDE2AA1 " v="380.0" angle="-11.774831771850586"/>
            </iidm:busBreakerTopology>
            <iidm:generator id="3_DDE2AA1 _generator" energySource="OTHER" minP="-0.0" maxP="9000.0" voltageRegulatorOn="true" targetP="2000.0" targetV="400.0" targetQ="-0.0" bus="3_DDE2AA1 " connectablebus="3_DDE2AA1 " p="-2000.0">
                <iidm:minMaxReactiveLimits minQ="-9000.0" maxQ="9000.0"/>
            </iidm:generator>
            <iidm:load id="3_DDE2AA1 _load" loadType="UNDEFINED" p0="3000.0" q0="0.0" bus="3_DDE2AA1 " connectablebus="3_DDE2AA1 " p="3000.0"/>
        </iidm:voltageLevel>
    </iidm:substation>
    <iidm:substation id="3_DDE3AA" country="DE">
        <iidm:voltageLevel id="3_DDE3AA1" nominalV="380.0" topologyKind="BUS_BREAKER">
            <iidm:busBreakerTopology>
                <iidm:bus id="3_DDE3AA1 " v="380.0" angle="-10.916015625"/>
            </iidm:busBreakerTopology>
            <iidm:generator id="3_DDE3AA1 _generator" energySource="OTHER" minP="-0.0" maxP="9000.0" voltageRegulatorOn="true" targetP="1500.0" targetV="400.0" targetQ="-0.0" bus="3_DDE3AA1 " connectablebus="3_DDE3AA1 " p="-1500.0">
                <iidm:minMaxReactiveLimits minQ="-9000.0" maxQ="9000.0"/>
            </iidm:generator>
            <iidm:load id="3_DDE3AA1 _load" loadType="UNDEFINED" p0="2000.0" q0="0.0" bus="3_DDE3AA1 " connectablebus="3_DDE3AA1 " p="2000.0"/>
        </iidm:voltageLevel>
    </iidm:substation>
    <iidm:substation id="3_FFR1AA" country="FR">
        <iidm:voltageLevel id="3_FFR1AA1" nominalV="380.0" topologyKind="BUS_BREAKER">
            <iidm:busBreakerTopology>
                <iidm:bus id="3_FFR1AA1 " v="380.0" angle="0.13716478645801544"/>
                <iidm:bus id="3_FFR2AA1 " v="380.0" angle="-5.659938335418701"/>
            </iidm:busBreakerTopology>
            <iidm:generator id="3_FFR1AA1 _generator" energySource="OTHER" minP="-0.0" maxP="9000.0" voltageRegulatorOn="true" targetP="2000.0" targetV="400.0" targetQ="-0.0" bus="3_FFR1AA1 " connectablebus="3_FFR1AA1 " p="-2000.0">
                <iidm:minMaxReactiveLimits minQ="-9000.0" maxQ="9000.0"/>
            </iidm:generator>
            <iidm:generator id="3_FFR2AA1 _generator" energySource="OTHER" minP="-0.0" maxP="9000.0" voltageRegulatorOn="true" targetP="2000.0" targetV="400.0" targetQ="-0.0" bus="3_FFR2AA1 " connectablebus="3_FFR2AA1 " p="-2000.0">
                <iidm:minMaxReactiveLimits minQ="-9000.0" maxQ="9000.0"/>
            </iidm:generator>
            <iidm:load id="3_FFR1AA1 _load" loadType="UNDEFINED" p0="1000.0" q0="0.0" bus="3_FFR1AA1 " connectablebus="3_FFR1AA1 " p="1000.0"/>
            <iidm:load id="3_FFR2AA1 _load" loadType="UNDEFINED" p0="3500.0" q0="0.0" bus="3_FFR2AA1 " connectablebus="3_FFR2AA1 " p="3500.0"/>
        </iidm:voltageLevel>
        <iidm:twoWindingsTransformer id="3_FFR1AA1  FFR2AA1  2" r="0.08669999986886978" x="13.98799991607666" g="1.2216000868647825E-6" b="-2.3275001694855746E-6" ratedU1="400.0" ratedU2="400.0" bus1="3_FFR2AA1 " connectablebus1="3_FFR2AA1 " voltageLevelId1="3_FFR1AA1" bus2="3_FFR1AA1 " connectablebus2="3_FFR1AA1 " voltageLevelId2="3_FFR1AA1" p1="279.1942443847656" p2="-279.1942443847656">
            <iidm:phaseTapChanger lowTapPosition="-17" tapPosition="-5" regulationMode="FIXED_TAP">
                <iidm:step r="0.0" x="0.0" g="0.0" b="0.0" rho="1.0" alpha="24.626773834228516"/>
                <iidm:step r="0.0" x="0.0" g="0.0" b="0.0" rho="1.0" alpha="23.21863555908203"/>
                <iidm:step r="0.0" x="0.0" g="0.0" b="0.0" rho="1.0" alpha="21.803354263305664"/>
                <iidm:step r="0.0" x="0.0" g="0.0" b="0.0" rho="1.0" alpha="20.38130760192871"/>
                <iidm:step r="0.0" x="0.0" g="0.0" b="0.0" rho="1.0" alpha="18.95288848876953"/>
                <iidm:step r="0.0" x="0.0" g="0.0" b="0.0" rho="1.0" alpha="17.51850128173828"/>
                <iidm:step r="0.0" x="0.0" g="0.0" b="0.0" rho="1.0" alpha="16.07855987548828"/>
                <iidm:step r="0.0" x="0.0" g="0.0" b="0.0" rho="1.0" alpha="14.633487701416016"/>
                <iidm:step r="0.0" x="0.0" g="0.0" b="0.0" rho="1.0" alpha="13.183723449707031"/>
                <iidm:step r="0.0" x="0.0" g="0.0" b="0.0" rho="1.0" alpha="11.729705810546875"/>
                <iidm:step r="0.0" x="0.0" g="0.0" b="0.0" rho="1.0" alpha="10.27188777923584"/>
                <iidm:step r="0.0" x="0.0" g="0.0" b="0.0" rho="1.0" alpha="8.81072998046875"/>
                <iidm:step r="0.0" x="0.0" g="0.0" b="0.0" rho="1.0" alpha="7.346695423126221"/>
                <iidm:step r="0.0" x="0.0" g="0.0" b="0.0" rho="1.0" alpha="5.880255699157715"/>
                <iidm:step r="0.0" x="0.0" g="0.0" b="0.0" rho="1.0" alpha="4.411885738372803"/>
                <iidm:step r="0.0" x="0.0" g="0.0" b="0.0" rho="1.0" alpha="2.9420645236968994"/>
                <iidm:step r="0.0" x="0.0" g="0.0" b="0.0" rho="1.0" alpha="1.471274733543396"/>
                <iidm:step r="0.0" x="0.0" g="0.0" b="0.0" rho="1.0" alpha="-0.0"/>
                <iidm:step r="0.0" x="0.0" g="0.0" b="0.0" rho="1.0" alpha="-1.471274733543396"/>
                <iidm:step r="0.0" x="0.0" g="0.0" b="0.0" rho="1.0" alpha="-2.9420645236968994"/>
                <iidm:step r="0.0" x="0.0" g="0.0" b="0.0" rho="1.0" alpha="-4.411885738372803"/>
                <iidm:step r="0.0" x="0.0" g="0.0" b="0.0" rho="1.0" alpha="-5.880255699157715"/>
                <iidm:step r="0.0" x="0.0" g="0.0" b="0.0" rho="1.0" alpha="-7.346695423126221"/>
                <iidm:step r="0.0" x="0.0" g="0.0" b="0.0" rho="1.0" alpha="-8.81072998046875"/>
                <iidm:step r="0.0" x="0.0" g="0.0" b="0.0" rho="1.0" alpha="-10.27188777923584"/>
                <iidm:step r="0.0" x="0.0" g="0.0" b="0.0" rho="1.0" alpha="-11.729705810546875"/>
                <iidm:step r="0.0" x="0.0" g="0.0" b="0.0" rho="1.0" alpha="-13.183723449707031"/>
                <iidm:step r="0.0" x="0.0" g="0.0" b="0.0" rho="1.0" alpha="-14.633487701416016"/>
                <iidm:step r="0.0" x="0.0" g="0.0" b="0.0" rho="1.0" alpha="-16.07855987548828"/>
                <iidm:step r="0.0" x="0.0" g="0.0" b="0.0" rho="1.0" alpha="-17.51850128173828"/>
                <iidm:step r="0.0" x="0.0" g="0.0" b="0.0" rho="1.0" alpha="-18.95288848876953"/>
                <iidm:step r="0.0" x="0.0" g="0.0" b="0.0" rho="1.0" alpha="-20.38130760192871"/>
                <iidm:step r="0.0" x="0.0" g="0.0" b="0.0" rho="1.0" alpha="-21.803354263305664"/>
                <iidm:step r="0.0" x="0.0" g="0.0" b="0.0" rho="1.0" alpha="-23.21863555908203"/>
                <iidm:step r="0.0" x="0.0" g="0.0" b="0.0" rho="1.0" alpha="-24.626773834228516"/>
            </iidm:phaseTapChanger>
            <iidm:currentLimits2 permanentLimit="2329.0"/>
        </iidm:twoWindingsTransformer>
    </iidm:substation>
    <iidm:substation id="3_FFR3AA" country="FR">
        <iidm:voltageLevel id="3_FFR3AA1" nominalV="380.0" topologyKind="BUS_BREAKER">
            <iidm:busBreakerTopology>
                <iidm:bus id="3_FFR3AA1 " v="380.0" angle="0.8586146235466003"/>
            </iidm:busBreakerTopology>
            <iidm:generator id="3_FFR3AA1 _generator" energySource="OTHER" minP="-0.0" maxP="9000.0" voltageRegulatorOn="true" targetP="3000.0" targetV="400.0" targetQ="-0.0" bus="3_FFR3AA1 " connectablebus="3_FFR3AA1 " p="-3000.0">
                <iidm:minMaxReactiveLimits minQ="-9000.0" maxQ="9000.0"/>
            </iidm:generator>
            <iidm:load id="3_FFR3AA1 _load" loadType="UNDEFINED" p0="1500.0" q0="0.0" bus="3_FFR3AA1 " connectablebus="3_FFR3AA1 " p="1500.0"/>
        </iidm:voltageLevel>
    </iidm:substation>
    <iidm:substation id="3_NNL1AA" country="NL">
        <iidm:voltageLevel id="3_NNL1AA1" nominalV="380.0" topologyKind="BUS_BREAKER">
            <iidm:busBreakerTopology>
                <iidm:bus id="3_NNL1AA1 " v="380.0" angle="-4.895452976226807"/>
            </iidm:busBreakerTopology>
            <iidm:generator id="3_NNL1AA1 _generator" energySource="OTHER" minP="-0.0" maxP="9000.0" voltageRegulatorOn="true" targetP="1500.0" targetV="400.0" targetQ="-0.0" bus="3_NNL1AA1 " connectablebus="3_NNL1AA1 " p="-1500.0">
                <iidm:minMaxReactiveLimits minQ="-9000.0" maxQ="9000.0"/>
            </iidm:generator>
            <iidm:load id="3_NNL1AA1 _load" loadType="UNDEFINED" p0="1000.0" q0="0.0" bus="3_NNL1AA1 " connectablebus="3_NNL1AA1 " p="1000.0"/>
        </iidm:voltageLevel>
    </iidm:substation>
    <iidm:substation id="3_NNL2AA" country="NL">
        <iidm:voltageLevel id="3_NNL2AA1" nominalV="380.0" topologyKind="BUS_BREAKER">
            <iidm:busBreakerTopology>
                <iidm:bus id="3_NNL2AA1 " v="380.0" angle="-4.663552761077881"/>
            </iidm:busBreakerTopology>
            <iidm:generator id="3_NNL2AA1 _generator" energySource="OTHER" minP="-0.0" maxP="9000.0" voltageRegulatorOn="true" targetP="500.0" targetV="400.0" targetQ="-0.0" bus="3_NNL2AA1 " connectablebus="3_NNL2AA1 " p="-500.0">
                <iidm:minMaxReactiveLimits minQ="-9000.0" maxQ="9000.0"/>
            </iidm:generator>
            <iidm:load id="3_NNL2AA1 _load" loadType="UNDEFINED" p0="1000.0" q0="0.0" bus="3_NNL2AA1 " connectablebus="3_NNL2AA1 " p="1000.0"/>
        </iidm:voltageLevel>
    </iidm:substation>
    <iidm:substation id="3_NNL3AA" country="NL">
        <iidm:voltageLevel id="3_NNL3AA1" nominalV="380.0" topologyKind="BUS_BREAKER">
            <iidm:busBreakerTopology>
                <iidm:bus id="3_NNL3AA1 " v="380.0" angle="-7.111279010772705"/>
            </iidm:busBreakerTopology>
            <iidm:generator id="3_NNL3AA1 _generator" energySource="OTHER" minP="-0.0" maxP="9000.0" voltageRegulatorOn="true" targetP="2500.0" targetV="400.0" targetQ="-0.0" bus="3_NNL3AA1 " connectablebus="3_NNL3AA1 " p="-2500.0">
                <iidm:minMaxReactiveLimits minQ="-9000.0" maxQ="9000.0"/>
            </iidm:generator>
            <iidm:load id="3_NNL3AA1 _load" loadType="UNDEFINED" p0="2500.0" q0="0.0" bus="3_NNL3AA1 " connectablebus="3_NNL3AA1 " p="2500.0"/>
        </iidm:voltageLevel>
    </iidm:substation>
    <iidm:line id="3_BBE1AA1  BBE2AA1  1" r="0.0" x="10.0" g1="0.0" b1="0.0" g2="0.0" b2="0.0" bus1="3_BBE1AA1 " connectablebus1="3_BBE1AA1 " voltageLevelId1="3_BBE1AA1" bus2="3_BBE2AA1 " connectablebus2="3_BBE2AA1 " voltageLevelId2="3_BBE2AA1" p1="-1134.2760009765625" p2="1134.2760009765625">
        <iidm:currentLimits1 permanentLimit="5000.0"/>
        <iidm:currentLimits2 permanentLimit="5000.0"/>
    </iidm:line>
    <iidm:line id="3_BBE1AA1  BBE3AA1  1" r="0.0" x="10.0" g1="0.0" b1="0.0" g2="0.0" b2="0.0" bus1="3_BBE1AA1 " connectablebus1="3_BBE1AA1 " voltageLevelId1="3_BBE1AA1" bus2="3_BBE3AA1 " connectablebus2="3_BBE3AA1 " voltageLevelId2="3_BBE1AA1" p1="-593.217529296875" p2="593.217529296875">
        <iidm:currentLimits1 permanentLimit="5000.0"/>
        <iidm:currentLimits2 permanentLimit="5000.0"/>
    </iidm:line>
    <iidm:line id="3_BBE2AA1  BBE3AA1  1" r="0.0" x="10.0" g1="0.0" b1="0.0" g2="0.0" b2="0.0" bus1="3_BBE2AA1 " connectablebus1="3_BBE2AA1 " voltageLevelId1="3_BBE2AA1" bus2="3_BBE3AA1 " connectablebus2="3_BBE3AA1 " voltageLevelId2="3_BBE1AA1" p1="541.0584106445312" p2="-541.0584106445312">
        <iidm:currentLimits1 permanentLimit="5000.0"/>
        <iidm:currentLimits2 permanentLimit="5000.0"/>
    </iidm:line>
    <iidm:line id="3_FFR1AA1  FFR2AA1  1" r="0.0" x="10.0" g1="0.0" b1="0.0" g2="0.0" b2="0.0" bus1="3_FFR1AA1 " connectablebus1="3_FFR1AA1 " voltageLevelId1="3_FFR1AA1" bus2="3_FFR2AA1 " connectablebus2="3_FFR2AA1 " voltageLevelId2="3_FFR1AA1" p1="1461.01806640625" p2="-1461.01806640625">
        <iidm:currentLimits1 permanentLimit="5000.0"/>
        <iidm:currentLimits2 permanentLimit="5000.0"/>
    </iidm:line>
    <iidm:line id="3_FFR1AA1  FFR3AA1  1" r="0.0" x="10.0" g1="0.0" b1="0.0" g2="0.0" b2="0.0" bus1="3_FFR1AA1 " connectablebus1="3_FFR1AA1 " voltageLevelId1="3_FFR1AA1" bus2="3_FFR3AA1 " connectablebus2="3_FFR3AA1 " voltageLevelId2="3_FFR3AA1" p1="-181.82379150390625" p2="181.82379150390625">
        <iidm:currentLimits1 permanentLimit="5000.0"/>
        <iidm:currentLimits2 permanentLimit="5000.0"/>
    </iidm:line>
    <iidm:line id="3_FFR2AA1  FFR3AA1  1" r="0.0" x="10.0" g1="0.0" b1="0.0" g2="0.0" b2="0.0" bus1="3_FFR2AA1 " connectablebus1="3_FFR2AA1 " voltageLevelId1="3_FFR1AA1" bus2="3_FFR3AA1 " connectablebus2="3_FFR3AA1 " voltageLevelId2="3_FFR3AA1" p1="-1642.841796875" p2="1642.841796875">
        <iidm:currentLimits1 permanentLimit="5000.0"/>
        <iidm:currentLimits2 permanentLimit="5000.0"/>
    </iidm:line>
    <iidm:line id="3_DDE1AA1  DDE2AA1  1" r="0.0" x="10.0" g1="0.0" b1="0.0" g2="0.0" b2="0.0" bus1="3_DDE1AA1 " connectablebus1="3_DDE1AA1 " voltageLevelId1="3_DDE1AA1" bus2="3_DDE2AA1 " connectablebus2="3_DDE2AA1 " voltageLevelId2="3_DDE2AA1" p1="-391.77813720703125" p2="391.77813720703125">
        <iidm:currentLimits1 permanentLimit="5000.0"/>
        <iidm:currentLimits2 permanentLimit="5000.0"/>
    </iidm:line>
    <iidm:line id="3_DDE1AA1  DDE3AA1  1" r="0.0" x="10.0" g1="0.0" b1="0.0" g2="0.0" b2="0.0" bus1="3_DDE1AA1 " connectablebus1="3_DDE1AA1 " voltageLevelId1="3_DDE1AA1" bus2="3_DDE3AA1 " connectablebus2="3_DDE3AA1 " voltageLevelId2="3_DDE3AA1" p1="-608.2218627929688" p2="608.2218627929688">
        <iidm:currentLimits1 permanentLimit="5000.0"/>
        <iidm:currentLimits2 permanentLimit="5000.0"/>
    </iidm:line>
    <iidm:line id="3_DDE2AA1  DDE3AA1  1" r="0.0" x="10.0" g1="0.0" b1="0.0" g2="0.0" b2="0.0" bus1="3_DDE2AA1 " connectablebus1="3_DDE2AA1 " voltageLevelId1="3_DDE2AA1" bus2="3_DDE3AA1 " connectablebus2="3_DDE3AA1 " voltageLevelId2="3_DDE3AA1" p1="-216.44374084472656" p2="216.44374084472656">
        <iidm:currentLimits1 permanentLimit="5000.0"/>
        <iidm:currentLimits2 permanentLimit="5000.0"/>
    </iidm:line>
    <iidm:line id="3_NNL1AA1  NNL2AA1  1" r="0.0" x="10.0" g1="0.0" b1="0.0" g2="0.0" b2="0.0" bus1="3_NNL1AA1 " connectablebus1="3_NNL1AA1 " voltageLevelId1="3_NNL1AA1" bus2="3_NNL2AA1 " connectablebus2="3_NNL2AA1 " voltageLevelId2="3_NNL2AA1" p1="-58.444793701171875" p2="58.444793701171875">
        <iidm:currentLimits1 permanentLimit="5000.0"/>
        <iidm:currentLimits2 permanentLimit="5000.0"/>
    </iidm:line>
    <iidm:line id="3_NNL1AA1  NNL3AA1  1" r="0.0" x="10.0" g1="0.0" b1="0.0" g2="0.0" b2="0.0" bus1="3_NNL1AA1 " connectablebus1="3_NNL1AA1 " voltageLevelId1="3_NNL1AA1" bus2="3_NNL3AA1 " connectablebus2="3_NNL3AA1 " voltageLevelId2="3_NNL3AA1" p1="558.44482421875" p2="-558.44482421875">
        <iidm:currentLimits1 permanentLimit="5000.0"/>
        <iidm:currentLimits2 permanentLimit="5000.0"/>
    </iidm:line>
    <iidm:line id="3_NNL2AA1  NNL3AA1  1" r="0.0" x="10.0" g1="0.0" b1="0.0" g2="0.0" b2="0.0" bus1="3_NNL2AA1 " connectablebus1="3_NNL2AA1 " voltageLevelId1="3_NNL2AA1" bus2="3_NNL3AA1 " connectablebus2="3_NNL3AA1 " voltageLevelId2="3_NNL3AA1" p1="616.8895874023438" p2="-616.8895874023438">
        <iidm:currentLimits1 permanentLimit="5000.0"/>
        <iidm:currentLimits2 permanentLimit="5000.0"/>
    </iidm:line>
    <iidm:line id="3_FFR2AA1  DDE3AA1  1" r="0.0" x="10.0" g1="0.0" b1="0.0" g2="0.0" b2="0.0" bus1="3_FFR2AA1 " connectablebus1="3_FFR2AA1 " voltageLevelId1="3_FFR1AA1" bus2="3_DDE3AA1 " connectablebus2="3_DDE3AA1 " voltageLevelId2="3_DDE3AA1" p1="1324.6656494140625" p2="-1324.6656494140625">
        <iidm:currentLimits1 permanentLimit="5000.0"/>
        <iidm:currentLimits2 permanentLimit="5000.0"/>
    </iidm:line>
    <iidm:line id="3_DDE2AA1  NNL3AA1  1" r="0.0" x="10.0" g1="0.0" b1="0.0" g2="0.0" b2="0.0" bus1="3_DDE2AA1 " connectablebus1="3_DDE2AA1 " voltageLevelId1="3_DDE2AA1" bus2="3_NNL3AA1 " connectablebus2="3_NNL3AA1 " voltageLevelId2="3_NNL3AA1" p1="-1175.3343505859375" p2="1175.3343505859375">
        <iidm:currentLimits1 permanentLimit="5000.0"/>
        <iidm:currentLimits2 permanentLimit="5000.0"/>
    </iidm:line>
    <iidm:line id="3_NNL2AA1  BBE3AA1  1" r="0.0" x="10.0" g1="0.0" b1="0.0" g2="0.0" b2="0.0" bus1="3_NNL2AA1 " connectablebus1="3_NNL2AA1 " voltageLevelId1="3_NNL2AA1" bus2="3_BBE3AA1 " connectablebus2="3_BBE3AA1 " voltageLevelId2="3_BBE1AA1" p1="-1175.3343505859375" p2="1175.3343505859375">
        <iidm:currentLimits1 permanentLimit="5000.0"/>
        <iidm:currentLimits2 permanentLimit="5000.0"/>
    </iidm:line>
    <iidm:line id="3_BBE2AA1  FFR3AA1  1" r="0.0" x="10.0" g1="0.0" b1="0.0" g2="0.0" b2="0.0" bus1="3_BBE2AA1 " connectablebus1="3_BBE2AA1 " voltageLevelId1="3_BBE2AA1" bus2="3_FFR3AA1 " connectablebus2="3_FFR3AA1 " voltageLevelId2="3_FFR3AA1" p1="324.6656188964844" p2="-324.6656188964844">
        <iidm:currentLimits1 permanentLimit="5000.0"/>
        <iidm:currentLimits2 permanentLimit="5000.0"/>
    </iidm:line>
</iidm:network>